Circuit: * C:\Users\Ankit Negi\OneDrive\Documents\hustle\Internship\VIT Chennai EV\Circuit\RC_Filter.asc

R2: both pins shorted together -- ignoring.
C2: both pins shorted together -- ignoring.
.OP point found by inspection.

Date: Mon May 19 11:09:40 2025
Total elapsed time: 0.049 seconds.

tnom = 27
temp = 27
method = trap
totiter = 0
traniter = 0
tranpoints = 0
accept = 0
rejected = 0
matrix size = 4
fillins = 0
solver = Normal

